R 3 2 27000
R 0 4 1000
ACVS 1 0 2 1000
DCVS 3 0 5
C 1 2 0.0000001
BJT 2 3 4 0.000000000001 100 1
.tran 0.004 0.00001
.show 2 4
